$DATA1 SOURCE='HSPICE' VERSION='L-2016.06-SP2-1 linux64' PARAM_COUNT=0
.TITLE '* spice3 file created from nor2_1x.ext - technology: scmos'
 tpdr_a_0         tpdf_a_0         tpd_a_0          tpdr_a_7        
 tpdf_a_7         tpd_a_7          trise            tfall           
 temper           alter#          
  7.779e-10        3.247e-10        5.513e-10        7.874e-10      
  3.235e-10        5.555e-10        2.435e-10        7.881e-11      
   70.0000        1               
