$DATA1 SOURCE='HSPICE' VERSION='L-2016.06-SP2-1 linux64' PARAM_COUNT=0
.TITLE '* fo4.sp'
 tpdr             tpdf             tpd              trise           
 tfall            temper           alter#          
  2.914e-10        3.557e-10        3.236e-10        3.231e-10      
  3.690e-10         70.0000        1               
