$DATA1 SOURCE='HSPICE' VERSION='L-2016.06-SP2-1 linux64' PARAM_COUNT=0
.TITLE '* spice3 file created from nor2_1x.ext - technology: scmos'
 tpdr_a           tpdf_a           tpd_a            tpdr_b          
 tpdf_b           tpd_b            trise            tfall           
 temper           alter#          
 -3.845e-09       -3.882e-09       -3.863e-09        1.629e-10      
  1.162e-10        1.395e-10        1.767e-10        1.038e-10      
   70.0000        1               
